Version 4.1
SHEET 1 1700 712
WIRE 1120 -48 480 -48
WIRE 1216 -48 1120 -48
WIRE 1120 16 1120 -48
WIRE 480 48 480 -48
WIRE -272 64 -736 64
WIRE -272 80 -272 64
WIRE -80 80 -272 80
WIRE 0 80 -80 80
WIRE 144 80 80 80
WIRE 432 80 144 80
WIRE 608 112 512 112
WIRE 832 112 608 112
WIRE 912 112 832 112
WIRE -736 128 -736 64
WIRE -80 128 -80 80
WIRE 144 128 144 80
WIRE 432 144 352 144
WIRE 832 160 832 112
WIRE 1120 160 1120 96
WIRE 1168 160 1120 160
WIRE 1120 208 1120 160
WIRE -80 240 -80 192
WIRE 16 240 -80 240
WIRE 144 240 144 192
WIRE 144 240 80 240
WIRE -736 256 -736 208
WIRE 832 272 832 240
WIRE 832 272 768 272
WIRE 352 288 352 144
WIRE 608 288 608 112
WIRE 608 288 352 288
WIRE 480 304 480 176
WIRE 480 304 432 304
WIRE 1120 304 1120 288
WIRE 1120 304 480 304
WIRE -80 352 -80 240
WIRE -64 352 -80 352
WIRE 32 352 16 352
WIRE 64 352 32 352
WIRE 144 352 144 240
WIRE 544 352 368 352
WIRE 832 352 832 272
WIRE 432 416 432 304
WIRE 544 448 544 352
WIRE 544 448 480 448
WIRE 32 480 32 352
WIRE 368 480 368 352
WIRE 368 480 32 480
WIRE 400 480 368 480
WIRE 768 512 768 272
WIRE 768 512 480 512
WIRE 432 608 432 544
WIRE 1216 608 1216 -48
WIRE 1216 608 432 608
FLAG -736 256 0
FLAG 832 432 0
FLAG 1168 160 0
FLAG 912 112 Vout
IOPIN 912 112 Out
FLAG -736 64 Vin
IOPIN -736 64 In
SYMBOL res 96 64 R90
WINDOW 0 0 56 VBottom 2
WINDOW 3 32 56 VTop 2
SYMATTR InstName R1
SYMATTR Value 120k
SYMBOL cap -96 128 R0
SYMATTR InstName C1
SYMATTR Value 0.186µ
SYMBOL cap 128 128 R0
SYMATTR InstName C2
SYMATTR Value 0.186µ
SYMBOL cap 80 224 R90
WINDOW 0 0 32 VBottom 2
WINDOW 3 32 32 VTop 2
SYMATTR InstName C3
SYMATTR Value 0.186µ
SYMBOL res 32 336 R90
WINDOW 0 0 56 VBottom 2
WINDOW 3 32 56 VTop 2
SYMATTR InstName R2
SYMATTR Value 10k
SYMBOL res 160 336 R90
WINDOW 0 0 56 VBottom 2
WINDOW 3 32 56 VTop 2
SYMATTR InstName R3
SYMATTR Value 10k
SYMBOL LM741 432 112 R0
SYMATTR InstName U1
SYMBOL res 816 144 R0
SYMATTR InstName R4
SYMATTR Value 40
SYMBOL res 816 336 R0
SYMATTR InstName R5
SYMATTR Value 10k
SYMBOL voltage 1120 0 R0
WINDOW 123 0 0 Left 0
WINDOW 39 0 0 Left 0
SYMATTR InstName V2
SYMATTR Value 15
SYMBOL voltage 1120 192 R0
WINDOW 123 0 0 Left 0
WINDOW 39 0 0 Left 0
SYMATTR InstName V3
SYMATTR Value 15
SYMBOL LM741 480 480 R180
SYMATTR InstName U2
SYMBOL voltage -736 112 R0
WINDOW 123 24 124 Left 2
WINDOW 39 0 0 Left 0
SYMATTR InstName V1
SYMATTR Value SINE(0 2 1k)
SYMATTR Value2 AC 1
TEXT -824 616 Left 2 !.ac lin 100000 1 250
