Version 4.1
SHEET 1 1700 968
WIRE 1120 -48 480 -48
WIRE 1216 -48 1120 -48
WIRE 1120 16 1120 -48
WIRE 480 48 480 -48
WIRE -304 64 -656 64
WIRE -304 80 -304 64
WIRE -80 80 -304 80
WIRE 0 80 -80 80
WIRE 144 80 80 80
WIRE 432 80 144 80
WIRE 608 112 512 112
WIRE 832 112 608 112
WIRE 912 112 832 112
WIRE -80 128 -80 80
WIRE 144 128 144 80
WIRE 432 144 352 144
WIRE 832 160 832 112
WIRE 1120 160 1120 96
WIRE 1168 160 1120 160
WIRE -656 176 -656 64
WIRE 1120 208 1120 160
WIRE -80 240 -80 192
WIRE 16 240 -80 240
WIRE 144 240 144 192
WIRE 144 240 80 240
WIRE 832 272 832 240
WIRE 832 272 768 272
WIRE 352 288 352 144
WIRE 608 288 608 112
WIRE 608 288 352 288
WIRE 480 304 480 176
WIRE 480 304 432 304
WIRE 1120 304 1120 288
WIRE 1120 304 480 304
WIRE -656 336 -656 256
WIRE -80 352 -80 240
WIRE -64 352 -80 352
WIRE 32 352 16 352
WIRE 64 352 32 352
WIRE 144 352 144 240
WIRE 544 352 368 352
WIRE 832 352 832 272
WIRE 432 416 432 304
WIRE 544 448 544 352
WIRE 544 448 480 448
WIRE 32 480 32 352
WIRE 368 480 368 352
WIRE 368 480 32 480
WIRE 400 480 368 480
WIRE 768 512 768 272
WIRE 768 512 480 512
WIRE 432 608 432 544
WIRE 1216 608 1216 -48
WIRE 1216 608 432 608
WIRE -416 688 -624 688
WIRE -416 784 -416 688
WIRE -624 848 -624 688
WIRE -416 928 -416 864
FLAG 832 432 0
FLAG 1168 160 0
FLAG 912 112 Vout
IOPIN 912 112 Out
FLAG -624 928 0
FLAG -416 928 0
FLAG -624 688 ecg_out
IOPIN -624 688 Out
FLAG -656 416 0
FLAG -656 64 noisy_ecg
IOPIN -656 64 Out
SYMBOL res 96 64 R90
WINDOW 0 0 56 VBottom 2
WINDOW 3 32 56 VTop 2
SYMATTR InstName R1
SYMATTR Value 22k
SYMBOL cap -96 128 R0
SYMATTR InstName C1
SYMATTR Value 1µ
SYMBOL cap 128 128 R0
SYMATTR InstName C2
SYMATTR Value 1µ
SYMBOL cap 80 224 R90
WINDOW 0 0 32 VBottom 2
WINDOW 3 32 32 VTop 2
SYMATTR InstName C3
SYMATTR Value 1µ
SYMBOL res 32 336 R90
WINDOW 0 0 56 VBottom 2
WINDOW 3 32 56 VTop 2
SYMATTR InstName R2
SYMATTR Value 1.84k
SYMBOL res 160 336 R90
WINDOW 0 0 56 VBottom 2
WINDOW 3 32 56 VTop 2
SYMATTR InstName R3
SYMATTR Value 1.84k
SYMBOL LM741 432 112 R0
SYMATTR InstName U1
SYMBOL res 816 144 R0
SYMATTR InstName R4
SYMATTR Value 1k
SYMBOL res 816 336 R0
SYMATTR InstName R5
SYMATTR Value 35k
SYMBOL voltage 1120 0 R0
WINDOW 123 0 0 Left 0
WINDOW 39 0 0 Left 0
SYMATTR InstName V2
SYMATTR Value 3.3
SYMBOL voltage 1120 192 R0
WINDOW 123 0 0 Left 0
WINDOW 39 0 0 Left 0
SYMATTR InstName V3
SYMATTR Value 3.3
SYMBOL LM741 480 480 R180
SYMATTR InstName U2
SYMBOL bv -624 832 R0
SYMATTR InstName B1
SYMATTR Value V=table(mod(time,1), 0, 0,0.1, 0.2,0.12, 0,0.2, -0.2,0.21, 1.0,0.22, -0.5,0.3, 0,0.4, 0.3,0.5, 0,1, 0)
SYMBOL res -432 768 R0
SYMATTR InstName R6
SYMATTR Value 1k
SYMBOL bv -656 320 R0
SYMATTR InstName B2
SYMATTR Value V=V(ecg_out) + 0.2*sin(2*pi*50*time)
SYMBOL voltage -656 160 R0
WINDOW 123 24 124 Left 2
WINDOW 39 0 0 Left 0
SYMATTR Value2 AC 1
SYMATTR InstName V1
SYMATTR Value ""
TEXT -760 544 Left 2 !.tran 0 15 0 0.001
